datafiles/case9/case9mod_gen3_wind2.m
function mpc = case9_windcase

%%-----  Power Flow Data  -----%%
%% system MVA base
mpc.baseMVA = 100;

%% OPF objective
mpc.obj = 285.018845;

%% bus data
%	bus_i	type	Pd	Qd	Gs	Bs	area	Vm	Va	baseKV	zone	Vmax	Vmin	mult_Pmis	mult_Qmis	Pslack	Qslack
mpc.bus = [
	1	3	0	0	0	0	1	1.04	1.70582575e-20	345	1	1.04	1.04	206.425001	1.45104598e-09	0	0;
	2	2	0	0	0	0	1	1.025	4.5383349	345	1	1.025	1.025	201.383527	6.56994467e-09	0	0;
	3	2	0	0	0	0	1	1.025	2.90128324	345	1	1.025	1.025	201.83727	5.06471131e-09	0	0;
	4	1	0	0	0	0	1	1.03087697	-2.18829679	345	1	1.1	0.9	206.455506	0.0779906017	0	0;
	5	1	75	50	0	0	1	1.00801908	-3.38004702	345	1	1.1	0.9	207.602133	1.10473928	0	0;
	6	1	90	30	0	0	1	1.01740079	-4.26454172	345	1	1.1	0.9	209.362999	0.544020415	0	0;
	7	1	0	0	0	0	1	1.02872406	0.752117625	345	1	1.1	0.9	201.450195	0.35430184	0	0;
	8	1	100	35	0	0	1	1.01835783	-1.72455417	345	1	1.1	0.9	203.598783	0.725399566	0	0;
	9	1	0	0	0	0	1	1.03373231	0.206124295	345	1	1.1	0.9	201.88186	0.249258314	0	0;
];

%% generator data
%	bus	Pg	Qg	Qmax	Qmin	Vg	mBase	status	Pmax	Pmin	Pc1	Pc2	Qc1min	Qc1max	Qc2min	Qc2max	ramp_agc	ramp_10	ramp_30	ramp_q	apf	pgs
mpc.gen = [
	1	71.1022748	17.7006637	300	-300	1.04	100	1	350	10	0	0	0	0	0	0	3	300	900	0	0.476190476	71.6;
	2	111.402075	-2.6086459	300	-300	1.025	100	1	300	10	0	0	0	0	0	0	3	300	900	0	0.408163265	163;
	3	85.0000009	-13.4243066	300	-300	1.025	100	1	85	0	0	0	0	0	0	0	45	450	1350	0	0.115646259	0;
];

%% branch data
%	fbus	tbus	r	x	b	rateA	rateB	rateC	ratio	angle	status	angmin	angmax	Pf	Qf	Pt	Qt
mpc.branch = [
	1	4	0.0001	0.0576	0.0001	380	250	250	1	0	1	0	0	71.1023	17.7007	-71.0973	-14.8521;
	2	7	0.0001	0.0625	0.0001	250	250	250	1	0	1	0	0	111.4021	-2.6086	-111.3903	9.9849;
	3	9	0.0001	0.0586	0.0001	300	300	250	1	0	1	0	0	85.0000	-13.4243	-84.9930	17.5440;
	4	5	0.01	0.085	0.176	250	250	250	1	0	1	0	0	28.3270	15.3020	-28.1943	-32.4676;
	4	6	0.017	0.092	0.158	250	250	250	1	0	1	0	0	42.7703	-0.4499	-42.4676	-14.4845;
	5	7	0.032	0.161	0.306	250	250	250	1	0	1	0	0	-46.8057	-17.5324	47.4969	-10.7280;
	6	9	0.039	0.17	0.358	150	150	150	1	0	1	0	0	-47.5324	-15.5155	48.3871	-18.4154;
	7	8	0.0085	0.072	0.149	250	250	250	1	0	1	0	0	63.8934	0.7431	-63.5595	-13.5252;
	8	9	0.0119	0.1008	0.209	150	150	150	1	0	1	0	0	-36.4405	-21.4748	36.6058	0.8714;
];

%% generator cost data
%	2	startup	shutdown	n	c(n-1)	...	c0
%	Using quadratic cost curves only
mpc.gencost = [
	2	1500	0	3	0.11	5	150;
	2	2000	0	3	0.085	1.2	600;
	2	0	0	3	0	0	0;
];

%% generator unit type (see GENTYPES)
mpc.gentype = {
	'GT';
	'GT';
	'W2';
};

%% generator fuel type (see GENFUELS)
mpc.genfuel = {
	'ng';
	'ng';
        'wind';
};

